20      
      0.000000    hexano
C     0.547041   -1.891271    0.000013
C    -0.379489   -0.666992   -0.000104
C     0.379427    0.666990    0.000123
H    -1.039108   -0.711361    0.880520
H    -1.038735   -0.711260   -0.881013
C    -0.220613   -3.219307   -0.000023
H    -0.863427   -3.301032    0.886030
H    -0.863772   -3.300771   -0.885849
H     0.461088   -4.078602   -0.000280
H     1.205530   -1.846051   -0.880070
H     1.205359   -1.846000    0.880223
C    -0.547066    1.891308    0.000131
H     1.038746    0.711222    0.880980
H     1.038974    0.711393   -0.880557
H    -1.205320    1.846168    0.880393
C     0.220685    3.219275   -0.000130
H    -1.205608    1.845986   -0.879906
H     0.863839    3.300909    0.885689
H     0.863532    3.300726   -0.886187
H    -0.460927    4.078641   -0.000096
